@<TRIPOS>MOLECULE
RES
12 12 1 0 1
SMALL
NO_CHARGES
@<TRIPOS>CRYSIN
    9.3455     9.9325     5.5369    90.0000    90.0000    90.0000  1  1
@<TRIPOS>ATOM
       1 _C1         -1.2250     0.6633    -0.1287 _C1           1 RES     
       2 _C1         -1.1950    -0.7272     0.0226 _C1           1 RES     
       3 _C1          0.0300    -1.3905     0.1513 _C1           1 RES     
       4 _C1          1.2250    -0.6633     0.1287 _C1           1 RES     
       5 _C1          1.1950     0.7272    -0.0226 _C1           1 RES     
       6 _C1         -0.0300     1.3905    -0.1513 _C1           1 RES     
       7 _H1         -2.1728     1.1765    -0.2283 _H1           1 RES     
       8 _H1         -2.1195    -1.2897     0.0401 _H1           1 RES     
       9 _H1          0.0533    -2.4662     0.2684 _H1           1 RES     
      10 _H1          2.1728    -1.1765     0.2283 _H1           1 RES     
      11 _H1          2.1195     1.2897    -0.0401 _H1           1 RES     
      12 _H1         -0.0533     2.4662    -0.2684 _H1           1 RES     
@<TRIPOS>BOND
       1        2        1 1
       2        6        1 1
       3        7        1 1
       4        3        2 1
       5        8        2 1
       6        4        3 1
       7        9        3 1
       8        5        4 1
       9       10        4 1
      10        6        5 1
      11       11        5 1
      12       12        6 1
@<TRIPOS>SUBSTRUCTURE
       1 RES             1 RESIDUE    0 **** ROOT      0
