@<TRIPOS>MOLECULE
RES
123 127 1 0 1
SMALL
NO_CHARGES
@<TRIPOS>CRYSIN
   25.5670    19.8060    16.8280    90.0000    90.0000    90.0000  1  1
@<TRIPOS>ATOM
       1 C            6.0920    13.7000     1.6940 C             1 RES     
       2 C            5.0600    14.8910     1.7710 C             1 RES     
       3 C            3.7680    14.2300     2.2410 C             1 RES     
       4 S            2.3520    15.2670     1.7890 S             1 RES     
       5 C            3.2660    15.6470     0.3090 C             1 RES     
       6 C            4.6330    15.5010     0.4480 C             1 RES     
       7 C            3.6940    12.9800     1.3900 C             1 RES     
       8 C            5.1210    12.6160     1.0380 C             1 RES     
       9 C            5.1320    11.1260     0.8610 C             1 RES     
      10 C            3.8860    10.3830     1.3720 C             1 RES     
      11 S            2.7810    11.6190     2.1450 S             1 RES     
      12 H            2.7800    15.9140    -0.6200 H             1 RES     
      13 H            5.3000    15.7670    -0.3550 H             1 RES     
      14 H            5.4080    10.8770    -0.1530 H             1 RES     
      15 C            1.6820     9.1400     0.7470 C             1 RES     
      16 C            3.1100     9.5380     0.2920 C             1 RES     
      17 C            3.8420     8.2410    -0.1150 C             1 RES     
      18 N            3.2780     7.6510    -1.3160 N             1 RES     
      19 S            3.7300     5.9310    -1.2990 S             1 RES     
      20 N            4.2870     5.9600     0.3900 N             1 RES     
      21 C            3.7790     7.1820     0.9780 C             1 RES     
      22 C            2.3320     6.9560     1.4410 C             1 RES     
      23 N            1.7340     8.2140     1.8810 N             1 RES     
      24 H            1.0920     8.6850    -0.0890 H             1 RES     
      25 H            2.3000     6.2100     2.2660 H             1 RES     
      26 C            6.5940    13.2770     3.1750 C             1 RES     
      27 C            5.6520    12.4610     4.1500 C             1 RES     
      28 C            5.8270    12.6840     5.6940 C             1 RES     
      29 C            6.9650    12.1350     6.6180 C             1 RES     
      30 C            6.6600    10.9240     7.5910 C             1 RES     
      31 C            7.2380     9.4890     7.3760 C             1 RES     
      32 C            8.7610     9.5360     7.0950 C             1 RES     
      33 C            8.9050     9.6560     5.5890 C             1 RES     
      34 C           10.2180    10.1560     5.0260 C             1 RES     
      35 C           10.0440    10.6140     3.5520 C             1 RES     
      36 C            9.5540     9.5710     2.5130 C             1 RES     
      37 C            8.0600     9.1300     2.5790 C             1 RES     
      38 C            7.7330     7.9830     1.6070 C             1 RES     
      39 C            7.1080     8.4210     0.2760 C             1 RES     
      40 C            7.9000     9.4300    -0.5640 C             1 RES     
      41 C            9.2160     8.8470    -1.0670 C             1 RES     
      42 H            6.9090    14.2190     3.6740 H             1 RES     
      43 H            7.5040    12.6540     3.0850 H             1 RES     
      44 H            4.6440    12.8670     4.0190 H             1 RES     
      45 H            5.5930    11.3870     3.8740 H             1 RES     
      46 H            5.8610    13.7940     5.7800 H             1 RES     
      47 H            4.8770    12.3850     6.1900 H             1 RES     
      48 H            8.0030    12.2380     6.2400 H             1 RES     
      49 H            6.9590    12.9450     7.3850 H             1 RES     
      50 H            7.1440    11.2020     8.5570 H             1 RES     
      51 H            5.5770    10.8580     7.8190 H             1 RES     
      52 H            6.6990     8.9130     6.5980 H             1 RES     
      53 H            7.0780     8.9530     8.3350 H             1 RES     
      54 H            9.2170    10.3770     7.6600 H             1 RES     
      55 H            9.2740     8.5970     7.4090 H             1 RES     
      56 H            8.7490     8.6220     5.2440 H             1 RES     
      57 H            8.1240    10.3360     5.2010 H             1 RES     
      58 H           10.5260    11.0620     5.5940 H             1 RES     
      59 H           11.0080     9.3840     5.1410 H             1 RES     
      60 H            9.3670    11.4910     3.5150 H             1 RES     
      61 H           11.0440    10.9710     3.2260 H             1 RES     
      62 H           10.2180     8.6850     2.5850 H             1 RES     
      63 H            9.7090    10.0430     1.5260 H             1 RES     
      64 H            7.8250     8.6800     3.5310 H             1 RES     
      65 H            7.3490     9.9820     2.4870 H             1 RES     
      66 H            6.9190     7.3670     2.0730 H             1 RES     
      67 H            8.5950     7.3060     1.4810 H             1 RES     
      68 H            6.8740     7.5200    -0.3260 H             1 RES     
      69 H            6.1630     8.8910     0.5450 H             1 RES     
      70 H            7.2810     9.6980    -1.4360 H             1 RES     
      71 H            8.0760    10.3570     0.0230 H             1 RES     
      72 H            9.0100     7.9450    -1.6790 H             1 RES     
      73 H            9.7310     9.6070    -1.6880 H             1 RES     
      74 H            9.8720     8.5610    -0.2220 H             1 RES     
      75 C            7.4070    14.1640     0.8210 C             1 RES     
      76 C            7.9170    15.6690     1.0590 C             1 RES     
      77 C            9.4020    16.2870     0.9610 C             1 RES     
      78 C           10.3510    16.5100    -0.2950 C             1 RES     
      79 C           11.5540    17.5090     0.0600 C             1 RES     
      80 C           12.7480    17.6850    -0.9640 C             1 RES     
      81 C           13.8470    18.7330    -0.5080 C             1 RES     
      82 C           15.1880    18.6950    -1.3220 C             1 RES     
      83 C           16.2660    19.7120    -0.8240 C             1 RES     
      84 C           17.6950    19.7020    -1.4670 C             1 RES     
      85 C           18.5140    18.4050    -1.2580 C             1 RES     
      86 C           18.1660    17.3510    -2.3270 C             1 RES     
      87 C           18.3220    15.8920    -1.8390 C             1 RES     
      88 C           19.7230    15.2380    -1.8100 C             1 RES     
      89 C           20.7370    15.7510    -0.7860 C             1 RES     
      90 C           20.2740    15.5840     0.6610 C             1 RES     
      91 H            8.2230    13.4400     1.0210 H             1 RES     
      92 H            7.1960    14.0840    -0.2690 H             1 RES     
      93 H            7.2600    16.3410     0.4700 H             1 RES     
      94 H            7.6700    15.8660     2.1200 H             1 RES     
      95 H            9.2330    17.3270     1.3230 H             1 RES     
      96 H           10.0150    15.7750     1.7280 H             1 RES     
      97 H           10.7540    15.5270    -0.6160 H             1 RES     
      98 H            9.7890    16.9560    -1.1450 H             1 RES     
      99 H           11.1160    18.5140     0.2490 H             1 RES     
     100 H           12.0200    17.1630     1.0070 H             1 RES     
     101 H           12.3710    17.9950    -1.9620 H             1 RES     
     102 H           13.2380    16.6950    -1.0670 H             1 RES     
     103 H           13.4160    19.7590    -0.5470 H             1 RES     
     104 H           14.1220    18.5200     0.5470 H             1 RES     
     105 H           15.5790    17.6710    -1.1870 H             1 RES     
     106 H           14.9920    18.8860    -2.4040 H             1 RES     
     107 H           15.8580    20.7370    -0.9640 H             1 RES     
     108 H           16.4050    19.5590     0.2680 H             1 RES     
     109 H           17.7010    19.9940    -2.5430 H             1 RES     
     110 H           18.2590    20.5060    -0.9290 H             1 RES     
     111 H           18.3110    18.0590    -0.2220 H             1 RES     
     112 H           19.6070    18.6040    -1.3340 H             1 RES     
     113 H           17.1130    17.4440    -2.5810 H             1 RES     
     114 H           18.7260    17.5350    -3.2710 H             1 RES     
     115 H           17.7590    15.2810    -2.5770 H             1 RES     
     116 H           17.8020    15.7570    -0.8640 H             1 RES     
     117 H           19.5680    14.1530    -1.6010 H             1 RES     
     118 H           20.1640    15.3150    -2.8280 H             1 RES     
     119 H           21.6590    15.1410    -0.9130 H             1 RES     
     120 H           21.0030    16.8080    -0.9840 H             1 RES     
     121 H           20.0120    14.5220     0.8640 H             1 RES     
     122 H           21.0960    15.8780     1.3450 H             1 RES     
     123 H           19.3950    16.2220     0.8700 H             1 RES     
@<TRIPOS>BOND
       1        2        1 1
       2        8        1 1
       3       26        1 1
       4       75        1 1
       5        3        2 1
       6        6        2 1
       7        4        3 1
       8        7        3 1
       9        5        4 1
      10        6        5 1
      11       12        5 1
      12       13        6 1
      13        8        7 1
      14       11        7 1
      15        9        8 1
      16       10        9 1
      17       14        9 1
      18       11       10 1
      19       16       10 1
      20       16       15 1
      21       23       15 1
      22       24       15 1
      23       17       16 1
      24       18       17 1
      25       21       17 1
      26       19       18 1
      27       20       19 1
      28       21       20 1
      29       22       21 1
      30       23       22 1
      31       25       22 1
      32       27       26 1
      33       42       26 1
      34       43       26 1
      35       28       27 1
      36       44       27 1
      37       45       27 1
      38       29       28 1
      39       46       28 1
      40       47       28 1
      41       30       29 1
      42       48       29 1
      43       49       29 1
      44       31       30 1
      45       50       30 1
      46       51       30 1
      47       32       31 1
      48       52       31 1
      49       53       31 1
      50       33       32 1
      51       54       32 1
      52       55       32 1
      53       34       33 1
      54       56       33 1
      55       57       33 1
      56       35       34 1
      57       58       34 1
      58       59       34 1
      59       36       35 1
      60       60       35 1
      61       61       35 1
      62       37       36 1
      63       62       36 1
      64       63       36 1
      65       38       37 1
      66       64       37 1
      67       65       37 1
      68       39       38 1
      69       66       38 1
      70       67       38 1
      71       40       39 1
      72       68       39 1
      73       69       39 1
      74       41       40 1
      75       70       40 1
      76       71       40 1
      77       72       41 1
      78       73       41 1
      79       74       41 1
      80       76       75 1
      81       91       75 1
      82       92       75 1
      83       77       76 1
      84       93       76 1
      85       94       76 1
      86       78       77 1
      87       95       77 1
      88       96       77 1
      89       79       78 1
      90       97       78 1
      91       98       78 1
      92       80       79 1
      93       99       79 1
      94      100       79 1
      95       81       80 1
      96      101       80 1
      97      102       80 1
      98       82       81 1
      99      103       81 1
     100      104       81 1
     101       83       82 1
     102      105       82 1
     103      106       82 1
     104       84       83 1
     105      107       83 1
     106      108       83 1
     107       85       84 1
     108      109       84 1
     109      110       84 1
     110       86       85 1
     111      111       85 1
     112      112       85 1
     113       87       86 1
     114      113       86 1
     115      114       86 1
     116       88       87 1
     117      115       87 1
     118      116       87 1
     119       89       88 1
     120      117       88 1
     121      118       88 1
     122       90       89 1
     123      119       89 1
     124      120       89 1
     125      121       90 1
     126      122       90 1
     127      123       90 1
@<TRIPOS>SUBSTRUCTURE
       1 RES             1 RESIDUE    0 **** ROOT      0
