@<TRIPOS>MOLECULE
RES
26 28 1 0 1
SMALL
NO_CHARGES
@<TRIPOS>CRYSIN
   11.7290    14.4400     9.6720    90.0000    90.0000    90.0000  1  1
@<TRIPOS>ATOM
       1 C1          -4.9870     9.0790    -2.8550 C1            1 RES     
       2 C2          -5.0850    10.1740    -1.7790 C2            1 RES     
       3 C2          -5.2000     9.4340    -0.4260 C2            1 RES     
       4 S1          -6.7440     9.9160     0.4240 S1            1 RES     
       5 C2          -7.1760    10.9970    -0.9300 C2            1 RES     
       6 C2          -6.2730    11.0430    -1.9630 C2            1 RES     
       7 C2          -5.2450     7.9830    -0.8480 C2            1 RES     
       8 C2          -4.3520     8.0000    -2.0250 C2            1 RES     
       9 C2          -4.2930     6.5970    -2.4590 C2            1 RES     
      10 C2          -4.1360     5.7010    -1.2620 C2            1 RES     
      11 S1          -4.5810     6.7010     0.2390 S1            1 RES     
      12 H1          -4.3940     9.3850    -3.7410 H1            1 RES     
      13 H1          -6.0020     8.7380    -3.1740 H1            1 RES     
      14 H2          -8.0860    11.5830    -0.9330 H2            1 RES     
      15 H3          -6.4200    11.6550    -2.8430 H3            1 RES     
      16 H3          -4.8150     6.2750    -3.3500 H3            1 RES     
      17 C1          -2.6780     5.2250    -1.1810 C1            1 RES     
      18 C1          -2.4380     4.2130    -0.0510 C1            1 RES     
      19 C1          -3.2340     2.9240    -0.2530 C1            1 RES     
      20 H1          -2.3930     4.7450    -2.1440 H1            1 RES     
      21 H1          -2.0140     6.1040    -1.0270 H1            1 RES     
      22 H1          -1.3570     3.9560    -0.0340 H1            1 RES     
      23 H1          -2.6980     4.6610     0.9310 H1            1 RES     
      24 H1          -2.9540     2.4480    -1.2170 H1            1 RES     
      25 H1          -3.0060     2.2150     0.5710 H1            1 RES     
      26 H1          -4.3240     3.1300    -0.2500 H1            1 RES     
@<TRIPOS>BOND
       1        2        1 1
       2        8        1 1
       3       12        1 1
       4       13        1 1
       5        3        2 1
       6        6        2 1
       7        4        3 1
       8        7        3 1
       9        5        4 1
      10        6        5 1
      11       14        5 1
      12       15        6 1
      13        8        7 1
      14       11        7 1
      15        9        8 1
      16       10        9 1
      17       16        9 1
      18       11       10 1
      19       17       10 1
      20       18       17 1
      21       20       17 1
      22       21       17 1
      23       19       18 1
      24       22       18 1
      25       23       18 1
      26       24       19 1
      27       25       19 1
      28       26       19 1
@<TRIPOS>SUBSTRUCTURE
       1 RES             1 RESIDUE    0 **** ROOT      0
