@<TRIPOS>MOLECULE
RES
45 45 1 0 1
SMALL
NO_CHARGES
@<TRIPOS>CRYSIN
  200.0000   200.0000   200.0000    90.0000    90.0000    90.0000  1  1
@<TRIPOS>ATOM
       1 _C1        100.6984    99.3196    89.9519 _C1           1 RES     
       2 _C1         99.3022    99.3198    90.0590 _C1           1 RES     
       3 _C1         98.7473   100.5915    90.0914 _C1           1 RES     
       4 _S1         99.9992   101.7078    89.9864 _S1           1 RES     
       5 _C1        101.2521   100.5911    89.8992 _C1           1 RES     
       6 _H1        101.2897    98.4144    89.9138 _H1           1 RES     
       7 _H1         98.7118    98.4148    90.1114 _H1           1 RES     
       8 _H2         97.6934   100.8209    90.1704 _H2           1 RES     
       9 _H2        102.3059   100.8202    89.8166 _H2           1 RES     
      10 _C1        100.6984    99.3196    94.9519 _C1           1 RES     
      11 _C1         99.3022    99.3198    95.0590 _C1           1 RES     
      12 _C1         98.7473   100.5915    95.0914 _C1           1 RES     
      13 _S1         99.9992   101.7078    94.9864 _S1           1 RES     
      14 _C1        101.2521   100.5911    94.8992 _C1           1 RES     
      15 _H1        101.2897    98.4144    94.9138 _H1           1 RES     
      16 _H1         98.7118    98.4148    95.1114 _H1           1 RES     
      17 _H2         97.6934   100.8209    95.1704 _H2           1 RES     
      18 _H2        102.3059   100.8202    94.8166 _H2           1 RES     
      19 _C1        100.6984    99.3196    99.9519 _C1           1 RES     
      20 _C1         99.3022    99.3198   100.0590 _C1           1 RES     
      21 _C1         98.7473   100.5915   100.0914 _C1           1 RES     
      22 _S1         99.9992   101.7078    99.9864 _S1           1 RES     
      23 _C1        101.2521   100.5911    99.8992 _C1           1 RES     
      24 _H1        101.2897    98.4144    99.9138 _H1           1 RES     
      25 _H1         98.7118    98.4148   100.1114 _H1           1 RES     
      26 _H2         97.6934   100.8209   100.1704 _H2           1 RES     
      27 _H2        102.3059   100.8202    99.8166 _H2           1 RES     
      28 _C1        100.6984    99.3196   104.9519 _C1           1 RES     
      29 _C1         99.3022    99.3198   105.0590 _C1           1 RES     
      30 _C1         98.7473   100.5915   105.0914 _C1           1 RES     
      31 _S1         99.9992   101.7078   104.9864 _S1           1 RES     
      32 _C1        101.2521   100.5911   104.8992 _C1           1 RES     
      33 _H1        101.2897    98.4144   104.9138 _H1           1 RES     
      34 _H1         98.7118    98.4148   105.1114 _H1           1 RES     
      35 _H2         97.6934   100.8209   105.1704 _H2           1 RES     
      36 _H2        102.3059   100.8202   104.8166 _H2           1 RES     
      37 _C1        100.6984    99.3196   109.9519 _C1           1 RES     
      38 _C1         99.3022    99.3198   110.0590 _C1           1 RES     
      39 _C1         98.7473   100.5915   110.0914 _C1           1 RES     
      40 _S1         99.9992   101.7078   109.9864 _S1           1 RES     
      41 _C1        101.2521   100.5911   109.8992 _C1           1 RES     
      42 _H1        101.2897    98.4144   109.9138 _H1           1 RES     
      43 _H1         98.7118    98.4148   110.1114 _H1           1 RES     
      44 _H2         97.6934   100.8209   110.1704 _H2           1 RES     
      45 _H2        102.3059   100.8202   109.8166 _H2           1 RES     
@<TRIPOS>BOND
       1        2        1 1
       2        5        1 1
       3        6        1 1
       4        3        2 1
       5        7        2 1
       6        4        3 1
       7        8        3 1
       8        5        4 1
       9        9        5 1
      10       11       10 1
      11       14       10 1
      12       15       10 1
      13       12       11 1
      14       16       11 1
      15       13       12 1
      16       17       12 1
      17       14       13 1
      18       18       14 1
      19       20       19 1
      20       23       19 1
      21       24       19 1
      22       21       20 1
      23       25       20 1
      24       22       21 1
      25       26       21 1
      26       23       22 1
      27       27       23 1
      28       29       28 1
      29       32       28 1
      30       33       28 1
      31       30       29 1
      32       34       29 1
      33       31       30 1
      34       35       30 1
      35       32       31 1
      36       36       32 1
      37       38       37 1
      38       41       37 1
      39       42       37 1
      40       39       38 1
      41       43       38 1
      42       40       39 1
      43       44       39 1
      44       41       40 1
      45       45       41 1
@<TRIPOS>SUBSTRUCTURE
       1 RES             1 RESIDUE    0 **** ROOT      0
