@<TRIPOS>MOLECULE
RES
8 8 1 0 1
SMALL
NO_CHARGES
@<TRIPOS>CRYSIN
    9.3247     8.4544     5.2362    90.0000    90.0000    90.0000  1  1
@<TRIPOS>ATOM
       1 C            0.0971    -0.6983     0.0030 C             1 RES     
       2 C           -1.1327    -0.0105     0.0608 C             1 RES     
       3 N           -1.0626     1.3446     0.0411 N             1 RES     
       4 S            0.5617     1.6770    -0.0499 S             1 RES     
       5 C            1.2017     0.1391    -0.0660 C             1 RES     
       6 H            0.1730    -1.7774     0.0117 H             1 RES     
       7 H           -2.0814    -0.5269     0.1178 H             1 RES     
       8 H            2.2432    -0.1475    -0.1185 H             1 RES     
@<TRIPOS>BOND
       1        2        1 1
       2        5        1 1
       3        6        1 1
       4        3        2 1
       5        7        2 1
       6        4        3 1
       7        5        4 1
       8        8        5 1
@<TRIPOS>SUBSTRUCTURE
       1 RES             1 RESIDUE    0 **** ROOT      0
