@<TRIPOS>MOLECULE
RES
123 127 1 0 1
SMALL
NO_CHARGES
@<TRIPOS>CRYSIN
   26.0730    21.8280    17.0310    90.0000    90.0000    90.0000  1  1
@<TRIPOS>ATOM
       1 C            5.4980    13.2440     1.3170 C             1 RES     
       2 C            4.2200    14.2250     1.4020 C             1 RES     
       3 C            3.0890    13.3560     1.9460 C             1 RES     
       4 S            1.5020    14.1610     1.6200 S             1 RES     
       5 C            2.2340    14.6660     0.0770 C             1 RES     
       6 C            3.6270    14.7410     0.0980 C             1 RES     
       7 C            3.1730    12.1220     1.0950 C             1 RES     
       8 C            4.6030    12.0530     0.5120 C             1 RES     
       9 C            4.3940    10.6190    -0.0950 C             1 RES     
      10 C            3.4650     9.6080     0.6990 C             1 RES     
      11 S            2.6820    10.6070     1.9930 S             1 RES     
      12 H            1.6540    14.6280    -0.8380 H             1 RES     
      13 H            4.1450    14.6980    -0.8460 H             1 RES     
      14 H            4.3350    10.5470    -1.1760 H             1 RES     
      15 C            1.1290     8.2570     0.7790 C             1 RES     
      16 C            2.5050     8.4780     0.0520 C             1 RES     
      17 C            3.0950     7.0840    -0.3720 C             1 RES     
      18 N            2.3380     6.5850    -1.5250 N             1 RES     
      19 S            2.0100     4.8450    -1.3430 S             1 RES     
      20 N            3.0450     4.7030     0.0790 N             1 RES     
      21 C            3.0200     6.0020     0.7350 C             1 RES     
      22 C            1.7600     6.1290     1.6110 C             1 RES     
      23 N            0.7130     6.8480     0.9010 N             1 RES     
      24 H            0.3310     8.7960     0.2330 H             1 RES     
      25 H            1.4000     5.1390     1.9950 H             1 RES     
      26 C            5.7920    12.7830     2.9410 C             1 RES     
      27 C            5.9540    12.0970     4.4850 C             1 RES     
      28 C            5.6870    12.0460     6.1040 C             1 RES     
      29 C            6.6480    11.4720     7.2370 C             1 RES     
      30 C            6.5710    10.0300     7.9150 C             1 RES     
      31 C            7.4100     8.7810     7.4950 C             1 RES     
      32 C            8.8750     9.1390     7.1720 C             1 RES     
      33 C            8.8520     9.5990     5.7330 C             1 RES     
      34 C           10.0060    10.3770     5.1630 C             1 RES     
      35 C            9.6130    10.9410     3.7690 C             1 RES     
      36 C            9.1410     9.8840     2.7380 C             1 RES     
      37 C            7.6540     9.4530     2.8780 C             1 RES     
      38 C            7.2520     8.2630     2.0030 C             1 RES     
      39 C            6.5850     8.7190     0.7290 C             1 RES     
      40 C            7.3730     9.6370    -0.2110 C             1 RES     
      41 C            8.5800     8.9240    -0.7820 C             1 RES     
      42 H            5.6880    13.7680     3.3060 H             1 RES     
      43 H            4.8820    12.0210     2.8190 H             1 RES     
      44 H            4.9160    12.4740     4.6440 H             1 RES     
      45 H            6.0250    11.0400     4.3440 H             1 RES     
      46 H            5.5990    13.1250     6.4200 H             1 RES     
      47 H            4.7040    11.5430     6.3630 H             1 RES     
      48 H            7.6870    11.8400     7.1350 H             1 RES     
      49 H            6.2600    12.0470     8.1130 H             1 RES     
      50 H            6.9920    10.2110     8.9340 H             1 RES     
      51 H            5.5180     9.7190     8.0920 H             1 RES     
      52 H            6.9440     8.2150     6.6560 H             1 RES     
      53 H            7.4040     8.0790     8.3640 H             1 RES     
      54 H            9.2400     9.9050     7.8880 H             1 RES     
      55 H            9.5490     8.2520     7.2310 H             1 RES     
      56 H            8.7670     8.6510     5.1640 H             1 RES     
      57 H            7.9810    10.2520     5.5870 H             1 RES     
      58 H           10.2330    11.2410     5.8250 H             1 RES     
      59 H           10.9000     9.7220     5.0980 H             1 RES     
      60 H            8.8260    11.7260     3.8640 H             1 RES     
      61 H           10.5220    11.4410     3.3780 H             1 RES     
      62 H            9.8190     9.0090     2.7920 H             1 RES     
      63 H            9.2520    10.3410     1.7400 H             1 RES     
      64 H            7.3460     9.1280     3.8680 H             1 RES     
      65 H            7.0080    10.3230     2.6710 H             1 RES     
      66 H            6.4310     7.7170     2.5340 H             1 RES     
      67 H            8.0730     7.5340     1.8680 H             1 RES     
      68 H            6.1670     7.8540     0.1720 H             1 RES     
      69 H            5.7710     9.2840     1.1540 H             1 RES     
      70 H            6.7220     9.9430    -1.0560 H             1 RES     
      71 H            7.6640    10.5750     0.3040 H             1 RES     
      72 H            8.2410     8.0260    -1.3390 H             1 RES     
      73 H            9.1140     9.6090    -1.4690 H             1 RES     
      74 H            9.2650     8.6180     0.0340 H             1 RES     
      75 C            6.8830    14.3000     0.6360 C             1 RES     
      76 C            8.1060    15.6590     0.4760 C             1 RES     
      77 C            9.4710    16.6500    -0.2000 C             1 RES     
      78 C           10.8520    17.5920    -0.8680 C             1 RES     
      79 C           12.4470    18.2050    -0.4780 C             1 RES     
      80 C           13.3690    19.2650    -1.4660 C             1 RES     
      81 C           14.8470    20.0670    -1.2170 C             1 RES     
      82 C           16.3580    19.5690    -1.6030 C             1 RES     
      83 C           17.6300    20.5420    -1.3060 C             1 RES     
      84 C           19.1450    20.1210    -1.6540 C             1 RES     
      85 C           19.5720    18.7010    -1.2000 C             1 RES     
      86 C           19.0540    17.6710    -2.2230 C             1 RES     
      87 C           18.5450    16.3520    -1.6290 C             1 RES     
      88 C           19.5020    15.1560    -1.6720 C             1 RES     
      89 C           20.7560    15.2220    -0.8010 C             1 RES     
      90 C           20.4390    15.3120     0.6890 C             1 RES     
      91 H            6.4580    14.3870    -0.3900 H             1 RES     
      92 H            6.4540    15.0030     1.3830 H             1 RES     
      93 H            7.3520    16.4780     0.3180 H             1 RES     
      94 H            8.4630    15.6690     1.5240 H             1 RES     
      95 H            8.9010    16.8570    -1.1480 H             1 RES     
      96 H            9.2980    17.4720     0.5420 H             1 RES     
      97 H           11.0600    17.1180    -1.8390 H             1 RES     
      98 H           10.3740    18.5790    -1.1070 H             1 RES     
      99 H           12.3640    18.7670     0.4750 H             1 RES     
     100 H           13.1140    17.3400    -0.3050 H             1 RES     
     101 H           12.6880    20.1420    -1.5660 H             1 RES     
     102 H           13.4520    18.8480    -2.4900 H             1 RES     
     103 H           14.7960    20.9730    -1.8770 H             1 RES     
     104 H           14.8780    20.4890    -0.1920 H             1 RES     
     105 H           16.5640    18.6390    -1.0490 H             1 RES     
     106 H           16.3790    19.3800    -2.6980 H             1 RES     
     107 H           17.5040    21.5310    -1.8080 H             1 RES     
     108 H           17.6440    20.7460    -0.2160 H             1 RES     
     109 H           19.4000    20.2250    -2.7360 H             1 RES     
     110 H           19.8260    20.8480    -1.1420 H             1 RES     
     111 H           19.1680    18.5630    -0.1770 H             1 RES     
     112 H           20.6820    18.5770    -1.1370 H             1 RES     
     113 H           18.1560    18.1100    -2.6730 H             1 RES     
     114 H           19.7350    17.5490    -3.0970 H             1 RES     
     115 H           17.7110    16.0350    -2.2920 H             1 RES     
     116 H           18.0920    16.5210    -0.6280 H             1 RES     
     117 H           18.9150    14.2620    -1.3630 H             1 RES     
     118 H           19.8130    15.0010    -2.7280 H             1 RES     
     119 H           21.3160    14.2750    -0.9710 H             1 RES     
     120 H           21.4040    16.0680    -1.1100 H             1 RES     
     121 H           19.7840    14.4680     0.9970 H             1 RES     
     122 H           21.3850    15.2510     1.2670 H             1 RES     
     123 H           19.9390    16.2730     0.9240 H             1 RES     
@<TRIPOS>BOND
       1        2        1 1
       2        8        1 1
       3       26        1 1
       4       75        1 1
       5        3        2 1
       6        6        2 1
       7        4        3 1
       8        7        3 1
       9        5        4 1
      10        6        5 1
      11       12        5 1
      12       13        6 1
      13        8        7 1
      14       11        7 1
      15        9        8 1
      16       10        9 1
      17       14        9 1
      18       11       10 1
      19       16       10 1
      20       16       15 1
      21       23       15 1
      22       24       15 1
      23       17       16 1
      24       18       17 1
      25       21       17 1
      26       19       18 1
      27       20       19 1
      28       21       20 1
      29       22       21 1
      30       23       22 1
      31       25       22 1
      32       27       26 1
      33       42       26 1
      34       43       26 1
      35       28       27 1
      36       44       27 1
      37       45       27 1
      38       29       28 1
      39       46       28 1
      40       47       28 1
      41       30       29 1
      42       48       29 1
      43       49       29 1
      44       31       30 1
      45       50       30 1
      46       51       30 1
      47       32       31 1
      48       52       31 1
      49       53       31 1
      50       33       32 1
      51       54       32 1
      52       55       32 1
      53       34       33 1
      54       56       33 1
      55       57       33 1
      56       35       34 1
      57       58       34 1
      58       59       34 1
      59       36       35 1
      60       60       35 1
      61       61       35 1
      62       37       36 1
      63       62       36 1
      64       63       36 1
      65       38       37 1
      66       64       37 1
      67       65       37 1
      68       39       38 1
      69       66       38 1
      70       67       38 1
      71       40       39 1
      72       68       39 1
      73       69       39 1
      74       41       40 1
      75       70       40 1
      76       71       40 1
      77       72       41 1
      78       73       41 1
      79       74       41 1
      80       76       75 1
      81       91       75 1
      82       92       75 1
      83       77       76 1
      84       93       76 1
      85       94       76 1
      86       78       77 1
      87       95       77 1
      88       96       77 1
      89       79       78 1
      90       97       78 1
      91       98       78 1
      92       80       79 1
      93       99       79 1
      94      100       79 1
      95       81       80 1
      96      101       80 1
      97      102       80 1
      98       82       81 1
      99      103       81 1
     100      104       81 1
     101       83       82 1
     102      105       82 1
     103      106       82 1
     104       84       83 1
     105      107       83 1
     106      108       83 1
     107       85       84 1
     108      109       84 1
     109      110       84 1
     110       86       85 1
     111      111       85 1
     112      112       85 1
     113       87       86 1
     114      113       86 1
     115      114       86 1
     116       88       87 1
     117      115       87 1
     118      116       87 1
     119       89       88 1
     120      117       88 1
     121      118       88 1
     122       90       89 1
     123      119       89 1
     124      120       89 1
     125      121       90 1
     126      122       90 1
     127      123       90 1
@<TRIPOS>SUBSTRUCTURE
       1 RES             1 RESIDUE    0 **** ROOT      0
